 demo                      SWAT+ 2026-05-18        MODULAR Rev 2026.61.0.2.11-298-g33cb547                
                                        zmx       usle_k       sumfc       sumul      usle_p     usle_ls        esco        epco     cn3_swf       perco     latq_co   tiledrain 
 sname           hydgrp                 (mm)                    (mm)        (mm)                                                                                     0=notile;1=tile;
soil_01-h1      B                  2000.0000      0.0000    361.5004    596.6684      1.0000      0.3638      0.9500      1.0000      0.0000      0.5000      0.0100           0
soil_02         B                  2000.0000      0.0000    361.5004    449.0375      1.0000      0.3638      0.9500      1.0000      0.0000      0.5000      0.0100           0
soil_03-h3      B                  2000.0000      0.0000    361.5004    591.3024      1.0000      0.3638      0.9500      1.0000      0.0000      0.5000      0.0100           0
soil_04         B                  2000.0000      0.0000    361.5004    603.6758      1.0000      0.3638      0.9500      1.0000      0.0000      0.5000      0.0100           0
soil_05         B                  2000.0000      0.0000    361.5004    605.5881      1.0000      0.3638      0.9500      1.0000      0.0000      0.5000      0.0100           0
soil_06         B                  2000.0000      0.0000    361.5004    597.6782      1.0000      0.3638      0.9500      1.0000      0.0000      0.0500      0.0100           0
soil_07         B                  2000.0000      0.0000    361.5004    619.7808      1.0000      0.3638      0.9500      1.0000      0.0000      0.5000      0.0100           0
soil_08         B                  2000.0000      0.0000    361.5004    515.7599      1.0000      0.3638      0.9500      1.0000      0.0000      0.5000      0.0100           0
soil_09         B                  2000.0000      0.0000    361.5004    591.4499      1.0000      0.3638      0.9500      1.0000      0.0000      0.5000      0.0100           0
soil_10         B                  2000.0000      0.0000    361.5004    556.5651      1.0000      0.3638      0.9500      1.0000      0.0000      0.5000      0.0100           0
soil_11         B                  2000.0000      0.0000    361.5003    465.0050      1.0000      0.3638      0.9500      1.0000      0.0000      0.5000      0.0100           0
soil_12         B                  2000.0000      0.0000    361.5004    539.4286      1.0000      0.3638      0.9500      1.0000      0.0000      0.0500      0.0100           0
